RUNSPEC

TITLE
   EXPERIMENT1

DIMENS
   25 25 40 /

OIL
WATER



GRID



EDIT



PROPS



REGIONS



SOLUTION



SUMMARY



SCHEDULE



