RUNSPEC

TITLE
   EXPERIMENT1

DIMENS
   25 25 40 /

OIL
WATER
GAS
DISGAS
FIELD

EQLDIMS
   1 100 2 1 2 /

TABDIMS
   1 1 15 10 1 10 /

WELLDIMS
   1 10 1 1 /

START
   01 'JAN' 2020 /

UNIFOUT



GRID

GRIDFILE
   0 1 /

DXV
   25*100 /

DYV
   300 120 50 20 10 20 50 120 300 /

DZ
   180*50 180*50 180*30 180*15
   180*10 180*15 180*30 180*50 180*50 /

INIT


EDIT



PROPS



REGIONS



SOLUTION



SUMMARY

FOPR
FWCT
FGOR
FOPT


SCHEDULE



END
