NOECHO
------------------------------------------------------------------------------------------------------------------------
RUNSPEC
--
TITLE
Synthetica2-L3

DIMENS
-- NX   NY   NZ
   42   21   16  /

-- Phases present
OIL
WATER


--NOSIM


START
 1 'JAN' 2020 /

METRIC

MESSAGES
4*100000000  /

UNIFOUT

TABDIMS
-- NoSatTabl        MaxNodesSatTab             MaxFIPReg            MaxSatEndpointsDepthTab
--          NoPVTTab              MaxPressNodes         MaxRsRvNodes
      3         1        100           100         2         100           /

SMRYDIMS
50000 /

WELLDIMS
-- MaxNo  MaxPerf  MaxGroup MaxWell/Group
    500     50        10        500         /

EQLDIMS
1 /

ENDSCALE
/

ACTDIMS
4*100  /

NSTACK
45 /

SAVE
/

MONITOR

------------------------------------------------------------------------------------------------------------------------
GRID

INCLUDE
'GRID_Synthetica4_1.GRDECL' /

EQUALS
PORO	0.197	4*	 1	 1	/
PORO	0.192	4*	 2	 2	/
PORO	0.176	4*	 3	 3	/
PORO	0.174	4*	 4	 4	/
PORO	0.167	4*	 5	 5	/
PORO	0.208	4*	 6	 6	/
PORO	0.168	4*	 7	 7	/
PORO	0.000	4*	 8	 8	/
PORO	0.191	4*	 9	 9	/
PORO	0.157	4*	10	10	/
PORO	0.194	4*	11	11	/
PORO	0.206	4*	12	12	/
PORO	0.187	4*	13	13	/
PORO	0.195	4*	14	14	/
PORO	0.196	4*	15	15	/
PORO	0.197	4*	16	16	/
/

-- PERMX = 10^(21.303 * PORO - 2.3592)
EQUALS
PERMX	68.8	4*	 1	 1	/
PERMX	53.8	4*	 2	 2	/
PERMX	24.6	4*	 3	 3	/
PERMX	22.3	4*	 4	 4	/
PERMX	15.8	4*	 5	 5	/
PERMX	118.0	4*	 6	 6	/
PERMX	16.6	4*	 7	 7	/
PERMX	0.0 	4*	 8	 8	/
PERMX	51.2	4*	 9	 9	/
PERMX	9.7 	4*	10	10	/
PERMX	59.4	4*	11	11	/
PERMX	107.0	4*	12	12	/
PERMX	42.1	4*	13	13	/
PERMX	62.4	4*	14	14	/
PERMX	65.5	4*	15	15	/
PERMX	68.8	4*	16	16	/
/

COPY
PERMX PERMY /
PERMX PERMZ /
/

MULTIPLY
PERMZ   0.1  /
/

GRIDFILE
1 1 /

INIT

------------------------------------------------------------------------------------------------------------------------
EDIT

------------------------------------------------------------------------------------------------------------------------
PROPS

SWOF
--	SW	KRW   	KRO   	PCOW
-- TABLE 1 (PERMX < 30mD)
0.1800	0.0000	0.8000	1.6449
0.2000	0.0000	0.7000	1.3000
0.2200	0.0000	0.6019	1.0176
0.2400	0.0000	0.5142	0.7883
0.2600	0.0000	0.4362	0.6037
0.2800	0.0000	0.3672	0.4567
0.3000	0.0000	0.3066	0.3408
0.3200	0.0031	0.2536	0.2505
0.3400	0.0054	0.2076	0.1811
0.3600	0.0089	0.1680	0.1285
0.3800	0.0137	0.1343	0.0893
0.4000	0.0202	0.1057	0.0607
0.4200	0.0288	0.0819	0.0401
0.4400	0.0397	0.0623	0.0257
0.4600	0.0534	0.0463	0.0159
0.4800	0.0702	0.0336	0.0094
0.5000	0.0906	0.0236	0.0053
0.5200	0.1151	0.0160	0.0028
0.5400	0.1440	0.0103	0.0014
0.5600	0.1779	0.0063	0.0006
0.5800	0.2174	0.0036	0.0002
0.6000	0.2628	0.0018	0.0001
0.6200	0.3148	0.0008	0.0000
0.6400	0.3739	0.0003	0.0000
0.6600	0.4407	0.0001	0.0000
0.6800	0.5159	0.0000	0.0000
0.7000	0.6000	0.0000	0.0000
0.7200	0.6267	0.0000	0.0000
0.7400	0.6533	0.0000	0.0000
0.7600	0.6800	0.0000	0.0000
0.7800	0.7067	0.0000	0.0000
0.8000	0.7333	0.0000	0.0000
0.8200	0.7600	0.0000	0.0000
0.8400	0.7867	0.0000	0.0000
0.8600	0.8133	0.0000	0.0000
0.8800	0.8400	0.0000	0.0000
0.9000	0.8667	0.0000	0.0000
0.9200	0.8933	0.0000	0.0000
0.9400	0.9200	0.0000	0.0000
0.9600	0.9467	0.0000	0.0000
0.9800	0.9733	0.0000	0.0000
1.0000	1.0000	0.0000	0.0000
/
-- TABLE 2 (30mD <= PERMX < 100mD)
0.1800	0.0000	0.8000	1.2077
0.2000	0.0000	0.7000	1.0000
0.2200	0.0000	0.6223	0.8219
0.2400	0.0000	0.5506	0.6702
0.2600	0.0000	0.4846	0.5417
0.2800	0.0000	0.4241	0.4338
0.3000	0.0043	0.3688	0.3437
0.3200	0.0074	0.3186	0.2693
0.3400	0.0117	0.2732	0.2084
0.3600	0.0175	0.2323	0.1590
0.3800	0.0249	0.1957	0.1195
0.4000	0.0341	0.1631	0.0883
0.4200	0.0454	0.1344	0.0639
0.4400	0.0590	0.1093	0.0453
0.4600	0.0750	0.0875	0.0312
0.4800	0.0937	0.0688	0.0209
0.5000	0.1152	0.0530	0.0136
0.5200	0.1398	0.0398	0.0084
0.5400	0.1677	0.0290	0.0050
0.5600	0.1991	0.0204	0.0028
0.5800	0.2341	0.0137	0.0014
0.6000	0.2731	0.0086	0.0007
0.6200	0.3161	0.0050	0.0003
0.6400	0.3635	0.0025	0.0001
0.6600	0.4154	0.0011	0.0000
0.6800	0.4719	0.0003	0.0000
0.7000	0.5334	0.0000	0.0000
0.7200	0.6000	0.0000	0.0000
0.7400	0.6286	0.0000	0.0000
0.7600	0.6571	0.0000	0.0000
0.7800	0.6857	0.0000	0.0000
0.8000	0.7143	0.0000	0.0000
0.8200	0.7429	0.0000	0.0000
0.8400	0.7714	0.0000	0.0000
0.8600	0.8000	0.0000	0.0000
0.8800	0.8286	0.0000	0.0000
0.9000	0.8571	0.0000	0.0000
0.9200	0.8857	0.0000	0.0000
0.9400	0.9143	0.0000	0.0000
0.9600	0.9429	0.0000	0.0000
0.9800	0.9714	0.0000	0.0000
1.0000	1.0000	0.0000	0.0000
/
-- TABLE 3 (100mD <= PERMX)
0.1800	0.0000	0.8000	1.0382
0.2000	0.0000	0.7000	0.9000
0.2200	0.0000	0.6381	0.7761
0.2400	0.0000	0.5796	0.6654
0.2600	0.0024	0.5244	0.5670
0.2800	0.0048	0.4725	0.4799
0.3000	0.0085	0.4239	0.4033
0.3200	0.0133	0.3783	0.3363
0.3400	0.0196	0.3359	0.2779
0.3600	0.0274	0.2964	0.2275
0.3800	0.0368	0.2598	0.1843
0.4000	0.0478	0.2261	0.1476
0.4200	0.0607	0.1952	0.1166
0.4400	0.0755	0.1670	0.0908
0.4600	0.0922	0.1413	0.0696
0.4800	0.1110	0.1182	0.0523
0.5000	0.1318	0.0975	0.0384
0.5200	0.1549	0.0792	0.0275
0.5400	0.1803	0.0631	0.0191
0.5600	0.2080	0.0491	0.0128
0.5800	0.2381	0.0372	0.0082
0.6000	0.2706	0.0272	0.0050
0.6200	0.3058	0.0190	0.0028
0.6400	0.3435	0.0125	0.0014
0.6600	0.3838	0.0076	0.0006
0.6800	0.4269	0.0040	0.0002
0.7000	0.4728	0.0017	0.0001
0.7200	0.5215	0.0005	0.0000
0.7400	0.5731	0.0000	0.0000
0.7600	0.6160	0.0000	0.0000
0.7800	0.6480	0.0000	0.0000
0.8000	0.6800	0.0000	0.0000
0.8200	0.7120	0.0000	0.0000
0.8400	0.7440	0.0000	0.0000
0.8600	0.7760	0.0000	0.0000
0.8800	0.8080	0.0000	0.0000
0.9000	0.8400	0.0000	0.0000
0.9200	0.8720	0.0000	0.0000
0.9400	0.9040	0.0000	0.0000
0.9600	0.9360	0.0000	0.0000
0.9800	0.9680	0.0000	0.0000
1.0000	1.0000	0.0000	0.0000
/



DENSITY
-- Oil   Water   Gas
   840   1006    0.777  /

PVDO
--  Press    Bo       Muo
		80		1.17563		1.23565
		230		1.15000		1.40000
		450		1.11343		1.64104
/

PVTW
-- Pref       Bw          Comp       Muw
   230      1.0131       4.5E-05    0.34     /

ROCK
--   RefPressure      Compressibility
--   BARSA               1/BARSA
     230                 1.5E-04      /

------------------------------------------------------------------------------------------------------------------------
REGIONS

EQUALS
FIPNUM	1	4*	 1	 8	/
FIPNUM	2	4*	 9	16	/
/

EQUALS
SATNUM	2	4*	 1	 1	/
SATNUM	2	4*	 2	 2	/
SATNUM	1	4*	 3	 3	/
SATNUM	1	4*	 4	 4	/
SATNUM	1	4*	 5	 5	/
SATNUM	3	4*	 6	 6	/
SATNUM	1	4*	 7	 7	/
SATNUM	1	4*	 8	 8	/
SATNUM	2	4*	 9	 9	/
SATNUM	1	4*	10	10	/
SATNUM	2	4*	11	11	/
SATNUM	3	4*	12	12	/
SATNUM	2	4*	13	13	/
SATNUM	2	4*	14	14	/
SATNUM	2	4*	15	15	/
SATNUM	2	4*	16	16	/
/

------------------------------------------------------------------------------------------------------------------------
SOLUTION

EQUIL
2274  230  2295  0.0  0.0  0.0  1  1  /

RPTSOL
RESTART=2 FIP=2 'PRES' 'SWAT' /

RPTRST
'ALLPROPS' /

------------------------------------------------------------------------------------------------------------------------
SUMMARY

WOPR
/
WOPT
/
WWPR
/
WWPT
/
WLPR
/
WLPT
/
WWIR
/
WWIT
/
WGPR
/
WGPT
/
WWCT
/
WGOR
/
WBHP
/
WBP9
/
WBP
/
WTHP
/

WOPRH
/
WOPTH
/
WWPRH
/
WWPTH
/
WLPRH
/
WLPTH
/
WWIRH
/
WWITH
/
WGPRH
/
WGPTH
/
WWCTH
/
WGORH
/
WBHPH
/
WTHPH
/

FOPR
FWPR
FLPR
FWIR
FGPR

FOPT
FWPT
FLPT
FWIT
FGPT

FPR
FWCT
FGOR

FMWPR
FMWIN

FOPRH
FWPRH
FLPRH
FWIRH
FGPRH

FOPTH
FWPTH
FLPTH
FWITH
FGPTH

FWCTH
FGORH

ROPR
/
RWPR
/
RWIR
/
RGPR
/
ROPT
/
RWPT
/
RWIT
/
RGPT
/
RPR
/
ROFT
/
ROFTL
/
ROFTG
/

GOPR
/
GOPT
/
GWPR
/
GWPT
/
GGPR
/
GGPT
/
GLPR
/
GLPT
/
GWIR
/
GWIT
/
GMWPR
/
GMWIN
/

FAQR

DATE

RUNSUM

SEPARATE

RPTONLY

RPTSMRY
1 /

MONITOR

EXCEL

------------------------------------------------------------------------------------------------------------------------
SCHEDULE


RPTSCHED
'FIP=2' 'RESTART=2' 'SUMMARY=2' 'WELLS=2' 'WELSPECS=2'  /

RPTRST
'BASIC=2' 'FREQ=1' /

TUNING
0.001 0.5 0.001 6* 1 /
/
1* 1* 50  1*  1* 4* /

MATCORR
/




WELSPECS
'X1'    A1  32  11   1*   OIL /
'X2'    A1  11  11   1*   WAT /
/

COMPDAT
'*'   2*   1   16   OPEN   2*   0.1905   1*   0.0    /
/

WCONPROD
'X1' OPEN BHP 5* 80 /
/

WECON
'X1'  0.595  1*  0.976  2*  WELL  /
/

WCONINJE
'X2' WATER OPEN GRUP 2* 430 /
/

GCONINJE
'FIELD'	WATER	VREP 3* 1.01 /
/

WEFAC
'*' 0.95 /
/


DATES
1 Feb 2020 /
1 Mar 2020 /
1 Apr 2020 /
1 May 2020 /
1 Jun 2020 /
1 Jul 2020 /
1 Aug 2020 /
1 Sep 2020 /
1 Oct 2020 /
1 Nov 2020 /
1 Dec 2020 /
1 Jan 2021 /
1 Feb 2021 /
1 Mar 2021 /
1 Apr 2021 /
1 May 2021 /
1 Jun 2021 /
1 Jul 2021 /
1 Aug 2021 /
1 Sep 2021 /
1 Oct 2021 /
1 Nov 2021 /
1 Dec 2021 /
1 Jan 2022 /
1 Feb 2022 /
1 Mar 2022 /
1 Apr 2022 /
1 May 2022 /
1 Jun 2022 /
1 Jul 2022 /
1 Aug 2022 /
1 Sep 2022 /
1 Oct 2022 /
1 Nov 2022 /
1 Dec 2022 /
1 Jan 2023 /
1 Feb 2023 /
1 Mar 2023 /
1 Apr 2023 /
1 May 2023 /
1 Jun 2023 /
1 Jul 2023 /
1 Aug 2023 /
1 Sep 2023 /
1 Oct 2023 /
1 Nov 2023 /
1 Dec 2023 /
1 Jan 2024 /
1 Jan 2025 /
1 Jan 2026 /
1 Jan 2027 /
1 Jan 2028 /
1 Jan 2029 /
1 Jan 2030 /
1 Jan 2031 /
1 Jan 2032 /
1 Jan 2033 /
1 Jan 2034 /
1 Jan 2035 /
1 Jan 2036 /
1 Jan 2037 /
1 Jan 2038 /
1 Jan 2039 /
1 Jan 2040 /
1 Jan 2041 /
1 Jan 2042 /
1 Jan 2043 /
1 Jan 2044 /
1 Jan 2045 /
1 Jan 2046 /
1 Jan 2047 /
1 Jan 2048 /
1 Jan 2049 /
1 Jan 2050 /
1 Jan 2051 /
--1 Jan 2052 /
--1 Jan 2053 /
--1 Jan 2054 /
--1 Jan 2055 /
--1 Jan 2056 /
--1 Jan 2057 /
--1 Jan 2058 /
--1 Jan 2059 /
--1 Jan 2060 /
--1 Jan 2061 /
--1 Jan 2062 /
--1 Jan 2063 /
--1 Jan 2064 /
--1 Jan 2065 /
--1 Jan 2066 /
--1 Jan 2067 /
--1 Jan 2068 /
--1 Jan 2069 /
--1 Jan 2070 /
--1 Jan 2071 /
--1 Jan 2072 /
--1 Jan 2073 /
--1 Jan 2074 /
--1 Jan 2075 /
--1 Jan 2076 /
--1 Jan 2077 /
--1 Jan 2078 /
--1 Jan 2079 /
--1 Jan 2080 /
--1 Jan 2081 /
--1 Jan 2082 /
--1 Jan 2083 /
--1 Jan 2084 /
--1 Jan 2085 /
--1 Jan 2086 /
--1 Jan 2087 /
--1 Jan 2088 /
--1 Jan 2089 /
--1 Jan 2090 /
--1 Jan 2091 /
--1 Jan 2092 /
--1 Jan 2093 /
--1 Jan 2094 /
--1 Jan 2095 /
--1 Jan 2096 /
--1 Jan 2097 /
--1 Jan 2098 /
--1 Jan 2099 /
--1 Jan 2100 /
--1 Jan 2101 /
--1 Jan 2102 /
--1 Jan 2103 /
--1 Jan 2104 /
--1 Jan 2105 /
--1 Jan 2106 /
--1 Jan 2107 /
--1 Jan 2108 /
--1 Jan 2109 /
--1 Jan 2110 /
--1 Jan 2111 /
--1 Jan 2112 /
--1 Jan 2113 /
--1 Jan 2114 /
--1 Jan 2115 /
--1 Jan 2116 /
--1 Jan 2117 /
--1 Jan 2118 /
--1 Jan 2119 /
--1 Jan 2120 /
--1 Jan 2121 /
/





END

