NOECHO
------------------------------------------------------------------------------------------------------------------------
RUNSPEC
--
TITLE
Synthetica1CP-L3

DIMENS
-- NX   NY   NZ
   21   21   16  /

-- Phases present
OIL
WATER


NOSIM


START
 1 'JAN' 2020 /

METRIC

MESSAGES
4*100000000  /

UNIFOUT

TABDIMS
-- NoSatTabl        MaxNodesSatTab             MaxFIPReg            MaxSatEndpointsDepthTab
--          NoPVTTab              MaxPressNodes         MaxRsRvNodes
      1         1        100           100         1         100           /

SMRYDIMS
50000 /

WELLDIMS
-- MaxNo  MaxPerf  MaxGroup MaxWell/Group
    500     50        10        500         /

EQLDIMS
1 /

ENDSCALE
/

ACTDIMS
4*100  /

NSTACK
45 /

SAVE
/

MONITOR

------------------------------------------------------------------------------------------------------------------------
GRID

SPECGRID
21 21 16 1 F /

COORDSYS
1 16 /

COORD
 5*0 9999 50 2*0 50 0 9999 100 2*0 100 0 9999 150 2*0 150 0 9999 200 2*0 200 0
 9999 250 2*0 250 0 9999 300 2*0 300 0 9999 350 2*0 350 0 9999 400 2*0 400 0
 9999 450 2*0 450 0 9999 500 2*0 500 0 9999 550 2*0 550 0 9999 600 2*0 600 0
 9999 650 2*0 650 0 9999 700 2*0 700 0 9999 750 2*0 750 0 9999 800 2*0 800 0
 9999 850 2*0 850 0 9999 900 2*0 900 0 9999 950 2*0 950 0 9999 1000 2*0 1000 0
 9999 1050 2*0 1050 0 9999 0 50 2*0 50 9999 2*50 0 2*50 9999 100 50 0 100 50
 9999 150 50 0 150 50 9999 200 50 0 200 50 9999 250 50 0 250 50 9999 300 50 0
 300 50 9999 350 50 0 350 50 9999 400 50 0 400 50 9999 450 50 0 450 50 9999 500
 50 0 500 50 9999 550 50 0 550 50 9999 600 50 0 600 50 9999 650 50 0 650 50
 9999 700 50 0 700 50 9999 750 50 0 750 50 9999 800 50 0 800 50 9999 850 50 0
 850 50 9999 900 50 0 900 50 9999 950 50 0 950 50 9999 1000 50 0 1000 50 9999
 1050 50 0 1050 50 9999 0 100 2*0 100 9999 50 100 0 50 100 9999 2*100 0 2*100
 9999 150 100 0 150 100 9999 200 100 0 200 100 9999 250 100 0 250 100 9999 300
 100 0 300 100 9999 350 100 0 350 100 9999 400 100 0 400 100 9999 450 100 0 450
 100 9999 500 100 0 500 100 9999 550 100 0 550 100 9999 600 100 0 600 100 9999
 650 100 0 650 100 9999 700 100 0 700 100 9999 750 100 0 750 100 9999 800 100 0
 800 100 9999 850 100 0 850 100 9999 900 100 0 900 100 9999 950 100 0 950 100
 9999 1000 100 0 1000 100 9999 1050 100 0 1050 100 9999 0 150 2*0 150 9999 50
 150 0 50 150 9999 100 150 0 100 150 9999 2*150 0 2*150 9999 200 150 0 200 150
 9999 250 150 0 250 150 9999 300 150 0 300 150 9999 350 150 0 350 150 9999 400
 150 0 400 150 9999 450 150 0 450 150 9999 500 150 0 500 150 9999 550 150 0 550
 150 9999 600 150 0 600 150 9999 650 150 0 650 150 9999 700 150 0 700 150 9999
 750 150 0 750 150 9999 800 150 0 800 150 9999 850 150 0 850 150 9999 900 150 0
 900 150 9999 950 150 0 950 150 9999 1000 150 0 1000 150 9999 1050 150 0 1050
 150 9999 0 200 2*0 200 9999 50 200 0 50 200 9999 100 200 0 100 200 9999 150
 200 0 150 200 9999 2*200 0 2*200 9999 250 200 0 250 200 9999 300 200 0 300 200
 9999 350 200 0 350 200 9999 400 200 0 400 200 9999 450 200 0 450 200 9999 500
 200 0 500 200 9999 550 200 0 550 200 9999 600 200 0 600 200 9999 650 200 0 650
 200 9999 700 200 0 700 200 9999 750 200 0 750 200 9999 800 200 0 800 200 9999
 850 200 0 850 200 9999 900 200 0 900 200 9999 950 200 0 950 200 9999 1000 200
 0 1000 200 9999 1050 200 0 1050 200 9999 0 250 2*0 250 9999 50 250 0 50 250
 9999 100 250 0 100 250 9999 150 250 0 150 250 9999 200 250 0 200 250 9999
 2*250 0 2*250 9999 300 250 0 300 250 9999 350 250 0 350 250 9999 400 250 0 400
 250 9999 450 250 0 450 250 9999 500 250 0 500 250 9999 550 250 0 550 250 9999
 600 250 0 600 250 9999 650 250 0 650 250 9999 700 250 0 700 250 9999 750 250 0
 750 250 9999 800 250 0 800 250 9999 850 250 0 850 250 9999 900 250 0 900 250
 9999 950 250 0 950 250 9999 1000 250 0 1000 250 9999 1050 250 0 1050 250 9999
 0 300 2*0 300 9999 50 300 0 50 300 9999 100 300 0 100 300 9999 150 300 0 150
 300 9999 200 300 0 200 300 9999 250 300 0 250 300 9999 2*300 0 2*300 9999 350
 300 0 350 300 9999 400 300 0 400 300 9999 450 300 0 450 300 9999 500 300 0 500
 300 9999 550 300 0 550 300 9999 600 300 0 600 300 9999 650 300 0 650 300 9999
 700 300 0 700 300 9999 750 300 0 750 300 9999 800 300 0 800 300 9999 850 300 0
 850 300 9999 900 300 0 900 300 9999 950 300 0 950 300 9999 1000 300 0 1000 300
 9999 1050 300 0 1050 300 9999 0 350 2*0 350 9999 50 350 0 50 350 9999 100 350
 0 100 350 9999 150 350 0 150 350 9999 200 350 0 200 350 9999 250 350 0 250 350
 9999 300 350 0 300 350 9999 2*350 0 2*350 9999 400 350 0 400 350 9999 450 350
 0 450 350 9999 500 350 0 500 350 9999 550 350 0 550 350 9999 600 350 0 600 350
 9999 650 350 0 650 350 9999 700 350 0 700 350 9999 750 350 0 750 350 9999 800
 350 0 800 350 9999 850 350 0 850 350 9999 900 350 0 900 350 9999 950 350 0 950
 350 9999 1000 350 0 1000 350 9999 1050 350 0 1050 350 9999 0 400 2*0 400 9999
 50 400 0 50 400 9999 100 400 0 100 400 9999 150 400 0 150 400 9999 200 400 0
 200 400 9999 250 400 0 250 400 9999 300 400 0 300 400 9999 350 400 0 350 400
 9999 2*400 0 2*400 9999 450 400 0 450 400 9999 500 400 0 500 400 9999 550 400
 0 550 400 9999 600 400 0 600 400 9999 650 400 0 650 400 9999 700 400 0 700 400
 9999 750 400 0 750 400 9999 800 400 0 800 400 9999 850 400 0 850 400 9999 900
 400 0 900 400 9999 950 400 0 950 400 9999 1000 400 0 1000 400 9999 1050 400 0
 1050 400 9999 0 450 2*0 450 9999 50 450 0 50 450 9999 100 450 0 100 450 9999
 150 450 0 150 450 9999 200 450 0 200 450 9999 250 450 0 250 450 9999 300 450 0
 300 450 9999 350 450 0 350 450 9999 400 450 0 400 450 9999 2*450 0 2*450 9999
 500 450 0 500 450 9999 550 450 0 550 450 9999 600 450 0 600 450 9999 650 450 0
 650 450 9999 700 450 0 700 450 9999 750 450 0 750 450 9999 800 450 0 800 450
 9999 850 450 0 850 450 9999 900 450 0 900 450 9999 950 450 0 950 450 9999 1000
 450 0 1000 450 9999 1050 450 0 1050 450 9999 0 500 2*0 500 9999 50 500 0 50
 500 9999 100 500 0 100 500 9999 150 500 0 150 500 9999 200 500 0 200 500 9999
 250 500 0 250 500 9999 300 500 0 300 500 9999 350 500 0 350 500 9999 400 500 0
 400 500 9999 450 500 0 450 500 9999 2*500 0 2*500 9999 550 500 0 550 500 9999
 600 500 0 600 500 9999 650 500 0 650 500 9999 700 500 0 700 500 9999 750 500 0
 750 500 9999 800 500 0 800 500 9999 850 500 0 850 500 9999 900 500 0 900 500
 9999 950 500 0 950 500 9999 1000 500 0 1000 500 9999 1050 500 0 1050 500 9999
 0 550 2*0 550 9999 50 550 0 50 550 9999 100 550 0 100 550 9999 150 550 0 150
 550 9999 200 550 0 200 550 9999 250 550 0 250 550 9999 300 550 0 300 550 9999
 350 550 0 350 550 9999 400 550 0 400 550 9999 450 550 0 450 550 9999 500 550 0
 500 550 9999 2*550 0 2*550 9999 600 550 0 600 550 9999 650 550 0 650 550 9999
 700 550 0 700 550 9999 750 550 0 750 550 9999 800 550 0 800 550 9999 850 550 0
 850 550 9999 900 550 0 900 550 9999 950 550 0 950 550 9999 1000 550 0 1000 550
 9999 1050 550 0 1050 550 9999 0 600 2*0 600 9999 50 600 0 50 600 9999 100 600
 0 100 600 9999 150 600 0 150 600 9999 200 600 0 200 600 9999 250 600 0 250 600
 9999 300 600 0 300 600 9999 350 600 0 350 600 9999 400 600 0 400 600 9999 450
 600 0 450 600 9999 500 600 0 500 600 9999 550 600 0 550 600 9999 2*600 0 2*600
 9999 650 600 0 650 600 9999 700 600 0 700 600 9999 750 600 0 750 600 9999 800
 600 0 800 600 9999 850 600 0 850 600 9999 900 600 0 900 600 9999 950 600 0 950
 600 9999 1000 600 0 1000 600 9999 1050 600 0 1050 600 9999 0 650 2*0 650 9999
 50 650 0 50 650 9999 100 650 0 100 650 9999 150 650 0 150 650 9999 200 650 0
 200 650 9999 250 650 0 250 650 9999 300 650 0 300 650 9999 350 650 0 350 650
 9999 400 650 0 400 650 9999 450 650 0 450 650 9999 500 650 0 500 650 9999 550
 650 0 550 650 9999 600 650 0 600 650 9999 2*650 0 2*650 9999 700 650 0 700 650
 9999 750 650 0 750 650 9999 800 650 0 800 650 9999 850 650 0 850 650 9999 900
 650 0 900 650 9999 950 650 0 950 650 9999 1000 650 0 1000 650 9999 1050 650 0
 1050 650 9999 0 700 2*0 700 9999 50 700 0 50 700 9999 100 700 0 100 700 9999
 150 700 0 150 700 9999 200 700 0 200 700 9999 250 700 0 250 700 9999 300 700 0
 300 700 9999 350 700 0 350 700 9999 400 700 0 400 700 9999 450 700 0 450 700
 9999 500 700 0 500 700 9999 550 700 0 550 700 9999 600 700 0 600 700 9999 650
 700 0 650 700 9999 2*700 0 2*700 9999 750 700 0 750 700 9999 800 700 0 800 700
 9999 850 700 0 850 700 9999 900 700 0 900 700 9999 950 700 0 950 700 9999 1000
 700 0 1000 700 9999 1050 700 0 1050 700 9999 0 750 2*0 750 9999 50 750 0 50
 750 9999 100 750 0 100 750 9999 150 750 0 150 750 9999 200 750 0 200 750 9999
 250 750 0 250 750 9999 300 750 0 300 750 9999 350 750 0 350 750 9999 400 750 0
 400 750 9999 450 750 0 450 750 9999 500 750 0 500 750 9999 550 750 0 550 750
 9999 600 750 0 600 750 9999 650 750 0 650 750 9999 700 750 0 700 750 9999
 2*750 0 2*750 9999 800 750 0 800 750 9999 850 750 0 850 750 9999 900 750 0 900
 750 9999 950 750 0 950 750 9999 1000 750 0 1000 750 9999 1050 750 0 1050 750
 9999 0 800 2*0 800 9999 50 800 0 50 800 9999 100 800 0 100 800 9999 150 800 0
 150 800 9999 200 800 0 200 800 9999 250 800 0 250 800 9999 300 800 0 300 800
 9999 350 800 0 350 800 9999 400 800 0 400 800 9999 450 800 0 450 800 9999 500
 800 0 500 800 9999 550 800 0 550 800 9999 600 800 0 600 800 9999 650 800 0 650
 800 9999 700 800 0 700 800 9999 750 800 0 750 800 9999 2*800 0 2*800 9999 850
 800 0 850 800 9999 900 800 0 900 800 9999 950 800 0 950 800 9999 1000 800 0
 1000 800 9999 1050 800 0 1050 800 9999 0 850 2*0 850 9999 50 850 0 50 850 9999
 100 850 0 100 850 9999 150 850 0 150 850 9999 200 850 0 200 850 9999 250 850 0
 250 850 9999 300 850 0 300 850 9999 350 850 0 350 850 9999 400 850 0 400 850
 9999 450 850 0 450 850 9999 500 850 0 500 850 9999 550 850 0 550 850 9999 600
 850 0 600 850 9999 650 850 0 650 850 9999 700 850 0 700 850 9999 750 850 0 750
 850 9999 800 850 0 800 850 9999 2*850 0 2*850 9999 900 850 0 900 850 9999 950
 850 0 950 850 9999 1000 850 0 1000 850 9999 1050 850 0 1050 850 9999 0 900 2*0
 900 9999 50 900 0 50 900 9999 100 900 0 100 900 9999 150 900 0 150 900 9999
 200 900 0 200 900 9999 250 900 0 250 900 9999 300 900 0 300 900 9999 350 900 0
 350 900 9999 400 900 0 400 900 9999 450 900 0 450 900 9999 500 900 0 500 900
 9999 550 900 0 550 900 9999 600 900 0 600 900 9999 650 900 0 650 900 9999 700
 900 0 700 900 9999 750 900 0 750 900 9999 800 900 0 800 900 9999 850 900 0 850
 900 9999 2*900 0 2*900 9999 950 900 0 950 900 9999 1000 900 0 1000 900 9999
 1050 900 0 1050 900 9999 0 950 2*0 950 9999 50 950 0 50 950 9999 100 950 0 100
 950 9999 150 950 0 150 950 9999 200 950 0 200 950 9999 250 950 0 250 950 9999
 300 950 0 300 950 9999 350 950 0 350 950 9999 400 950 0 400 950 9999 450 950 0
 450 950 9999 500 950 0 500 950 9999 550 950 0 550 950 9999 600 950 0 600 950
 9999 650 950 0 650 950 9999 700 950 0 700 950 9999 750 950 0 750 950 9999 800
 950 0 800 950 9999 850 950 0 850 950 9999 900 950 0 900 950 9999 2*950 0 2*950
 9999 1000 950 0 1000 950 9999 1050 950 0 1050 950 9999 0 1000 2*0 1000 9999 50
 1000 0 50 1000 9999 100 1000 0 100 1000 9999 150 1000 0 150 1000 9999 200 1000
 0 200 1000 9999 250 1000 0 250 1000 9999 300 1000 0 300 1000 9999 350 1000 0
 350 1000 9999 400 1000 0 400 1000 9999 450 1000 0 450 1000 9999 500 1000 0 500
 1000 9999 550 1000 0 550 1000 9999 600 1000 0 600 1000 9999 650 1000 0 650
 1000 9999 700 1000 0 700 1000 9999 750 1000 0 750 1000 9999 800 1000 0 800
 1000 9999 850 1000 0 850 1000 9999 900 1000 0 900 1000 9999 950 1000 0 950
 1000 9999 2*1000 0 2*1000 9999 1050 1000 0 1050 1000 9999 0 1050 2*0 1050 9999
 50 1050 0 50 1050 9999 100 1050 0 100 1050 9999 150 1050 0 150 1050 9999 200
 1050 0 200 1050 9999 250 1050 0 250 1050 9999 300 1050 0 300 1050 9999 350
 1050 0 350 1050 9999 400 1050 0 400 1050 9999 450 1050 0 450 1050 9999 500
 1050 0 500 1050 9999 550 1050 0 550 1050 9999 600 1050 0 600 1050 9999 650
 1050 0 650 1050 9999 700 1050 0 700 1050 9999 750 1050 0 750 1050 9999 800
 1050 0 800 1050 9999 850 1050 0 850 1050 9999 900 1050 0 900 1050 9999 950
 1050 0 950 1050 9999 1000 1050 0 1000 1050 9999 2*1050 0 2*1050 9999 /

ZCORN
 1764*2270 3528*2270.5 3528*2271 3528*2271.5 3528*2272 3528*2272.5 3528*2273
 3528*2273.5 3528*2274 3528*2274.5 3528*2275 3528*2275.5 3528*2276 3528*2276.5
 3528*2277 3528*2277.5 1764*2278 /

ACTNUM
 7056*1 /


EQUALS
PERMX  50    /
PORO   0.190 /
/

COPY
PERMX PERMY /
PERMX PERMZ /
/

MULTIPLY
PERMZ   0.1  /
/

GRIDFILE
1 1 /

INIT

------------------------------------------------------------------------------------------------------------------------
EDIT

------------------------------------------------------------------------------------------------------------------------
PROPS

SWOF
--	SW	KRW   	KRO   	PCOW
0.1800	0.0000	0.8000	1.2077
0.2000	0.0000	0.7000	1.0000
0.2200	0.0000	0.6223	0.8219
0.2400	0.0000	0.5506	0.6702
0.2600	0.0000	0.4846	0.5417
0.2800	0.0000	0.4241	0.4338
0.3000	0.0043	0.3688	0.3437
0.3200	0.0074	0.3186	0.2693
0.3400	0.0117	0.2732	0.2084
0.3600	0.0175	0.2323	0.1590
0.3800	0.0249	0.1957	0.1195
0.4000	0.0341	0.1631	0.0883
0.4200	0.0454	0.1344	0.0639
0.4400	0.0590	0.1093	0.0453
0.4600	0.0750	0.0875	0.0312
0.4800	0.0937	0.0688	0.0209
0.5000	0.1152	0.0530	0.0136
0.5200	0.1398	0.0398	0.0084
0.5400	0.1677	0.0290	0.0050
0.5600	0.1991	0.0204	0.0028
0.5800	0.2341	0.0137	0.0014
0.6000	0.2731	0.0086	0.0007
0.6200	0.3161	0.0050	0.0003
0.6400	0.3635	0.0025	0.0001
0.6600	0.4154	0.0011	0.0000
0.6800	0.4719	0.0003	0.0000
0.7000	0.5334	0.0000	0.0000
0.7200	0.6000	0.0000	0.0000
0.7400	0.6286	0.0000	0.0000
0.7600	0.6571	0.0000	0.0000
0.7800	0.6857	0.0000	0.0000
0.8000	0.7143	0.0000	0.0000
0.8200	0.7429	0.0000	0.0000
0.8400	0.7714	0.0000	0.0000
0.8600	0.8000	0.0000	0.0000
0.8800	0.8286	0.0000	0.0000
0.9000	0.8571	0.0000	0.0000
0.9200	0.8857	0.0000	0.0000
0.9400	0.9143	0.0000	0.0000
0.9600	0.9429	0.0000	0.0000
0.9800	0.9714	0.0000	0.0000
1.0000	1.0000	0.0000	0.0000
/


DENSITY
-- Oil   Water   Gas
   840   1006    0.777  /

PVDO
--  Press    Bo       Muo
		80		1.17563		1.23565
		230		1.15000		1.40000
		450		1.11343		1.64104
/

PVTW
-- Pref       Bw          Comp       Muw
   230      1.0131       4.5E-05    0.34     /

ROCK
--   RefPressure      Compressibility
--   BARSA               1/BARSA
     230                 1.5E-04      /

------------------------------------------------------------------------------------------------------------------------
REGIONS

------------------------------------------------------------------------------------------------------------------------
SOLUTION

EQUIL
2274  230  2300  0.0  0.0  0.0  1  1  /

RPTSOL
RESTART=2 FIP=2 'PRES' 'SWAT' /

RPTRST
'ALLPROPS' /

------------------------------------------------------------------------------------------------------------------------
SUMMARY

WOPR
/
WOPT
/
WWPR
/
WWPT
/
WLPR
/
WLPT
/
WWIR
/
WWIT
/
WGPR
/
WGPT
/
WWCT
/
WGOR
/
WBHP
/
WBP9
/
WBP
/
WTHP
/

WOPRH
/
WOPTH
/
WWPRH
/
WWPTH
/
WLPRH
/
WLPTH
/
WWIRH
/
WWITH
/
WGPRH
/
WGPTH
/
WWCTH
/
WGORH
/
WBHPH
/
WTHPH
/

FOPR
FWPR
FLPR
FWIR
FGPR

FOPT
FWPT
FLPT
FWIT
FGPT

FPR
FWCT
FGOR

FMWPR
FMWIN

FOPRH
FWPRH
FLPRH
FWIRH
FGPRH

FOPTH
FWPTH
FLPTH
FWITH
FGPTH

FWCTH
FGORH

ROPR
/
RWPR
/
RWIR
/
RGPR
/
ROPT
/
RWPT
/
RWIT
/
RGPT
/
RPR
/
ROFT
/
ROFTL
/
ROFTG
/

GOPR
/
GOPT
/
GWPR
/
GWPT
/
GGPR
/
GGPT
/
GLPR
/
GLPT
/
GWIR
/
GWIT
/
GMWPR
/
GMWIN
/

FAQR

DATE

RUNSUM

SEPARATE

RPTONLY

RPTSMRY
1 /

MONITOR

EXCEL

------------------------------------------------------------------------------------------------------------------------
SCHEDULE


RPTSCHED
'FIP=2' 'RESTART=2' 'SUMMARY=2' 'WELLS=2' 'WELSPECS=2'  /

RPTRST
'BASIC=2' 'FREQ=1' /

TUNING
0.001 0.5 0.001 6* 1 /
/
1* 1* 50  1*  1* 4* /

MATCORR
/




WELSPECS
'X1'	A1	11	11	1*	OIL	/
/

COMPDAT
'*'   2*   1   16   OPEN   2*   0.1905   1*   0.0    /
/

WCONPROD
'X1' OPEN BHP 5* 80 /
/

WECON
'X1'  0.595  1*  0.976  2*  WELL  /
/


DATES
1 Feb 2020 /
1 Mar 2020 /
1 Apr 2020 /
1 May 2020 /
1 Jun 2020 /
1 Jul 2020 /
1 Aug 2020 /
1 Sep 2020 /
1 Oct 2020 /
1 Nov 2020 /
1 Dec 2020 /
1 Jan 2021 /
1 Feb 2021 /
1 Mar 2021 /
1 Apr 2021 /
1 May 2021 /
1 Jun 2021 /
1 Jul 2021 /
1 Aug 2021 /
1 Sep 2021 /
1 Oct 2021 /
1 Nov 2021 /
1 Dec 2021 /
1 Jan 2022 /
1 Feb 2022 /
1 Mar 2022 /
1 Apr 2022 /
1 May 2022 /
1 Jun 2022 /
1 Jul 2022 /
1 Aug 2022 /
1 Sep 2022 /
1 Oct 2022 /
1 Nov 2022 /
1 Dec 2022 /
1 Jan 2023 /
1 Feb 2023 /
1 Mar 2023 /
1 Apr 2023 /
1 May 2023 /
1 Jun 2023 /
1 Jul 2023 /
1 Aug 2023 /
1 Sep 2023 /
1 Oct 2023 /
1 Nov 2023 /
1 Dec 2023 /
1 Jan 2024 /
1 Jan 2025 /
1 Jan 2026 /
1 Jan 2027 /
1 Jan 2028 /
1 Jan 2029 /
1 Jan 2030 /
1 Jan 2031 /
--1 Jan 2032 /
--1 Jan 2033 /
--1 Jan 2034 /
--1 Jan 2035 /
--1 Jan 2036 /
--1 Jan 2037 /
--1 Jan 2038 /
--1 Jan 2039 /
--1 Jan 2040 /
--1 Jan 2041 /
--1 Jan 2042 /
--1 Jan 2043 /
--1 Jan 2044 /
--1 Jan 2045 /
--1 Jan 2046 /
--1 Jan 2047 /
--1 Jan 2048 /
--1 Jan 2049 /
--1 Jan 2050 /
--1 Jan 2051 /
--1 Jan 2052 /
--1 Jan 2053 /
--1 Jan 2054 /
--1 Jan 2055 /
--1 Jan 2056 /
--1 Jan 2057 /
--1 Jan 2058 /
--1 Jan 2059 /
--1 Jan 2060 /
--1 Jan 2061 /
--1 Jan 2062 /
--1 Jan 2063 /
--1 Jan 2064 /
--1 Jan 2065 /
--1 Jan 2066 /
--1 Jan 2067 /
--1 Jan 2068 /
--1 Jan 2069 /
--1 Jan 2070 /
--1 Jan 2071 /
--1 Jan 2072 /
--1 Jan 2073 /
--1 Jan 2074 /
--1 Jan 2075 /
--1 Jan 2076 /
--1 Jan 2077 /
--1 Jan 2078 /
--1 Jan 2079 /
--1 Jan 2080 /
--1 Jan 2081 /
--1 Jan 2082 /
--1 Jan 2083 /
--1 Jan 2084 /
--1 Jan 2085 /
--1 Jan 2086 /
--1 Jan 2087 /
--1 Jan 2088 /
--1 Jan 2089 /
--1 Jan 2090 /
--1 Jan 2091 /
--1 Jan 2092 /
--1 Jan 2093 /
--1 Jan 2094 /
--1 Jan 2095 /
--1 Jan 2096 /
--1 Jan 2097 /
--1 Jan 2098 /
--1 Jan 2099 /
--1 Jan 2100 /
--1 Jan 2101 /
--1 Jan 2102 /
--1 Jan 2103 /
--1 Jan 2104 /
--1 Jan 2105 /
--1 Jan 2106 /
--1 Jan 2107 /
--1 Jan 2108 /
--1 Jan 2109 /
--1 Jan 2110 /
--1 Jan 2111 /
--1 Jan 2112 /
--1 Jan 2113 /
--1 Jan 2114 /
--1 Jan 2115 /
--1 Jan 2116 /
--1 Jan 2117 /
--1 Jan 2118 /
--1 Jan 2119 /
--1 Jan 2120 /
--1 Jan 2121 /
/





END

